&jules_output
    dump_period = 1
    nprofiles = 1
    output_dir = '/home/users/ewanp82/projects/east_ang_lavendar/output/test'
    run_id = 'test'
/

&jules_output_profile
    file_period = 0
    nvars = 1
    output_main_run = .true.
    output_period = 86400
    output_spinup = .false.
    output_type = 'M'
    profile_name = 'daily'
    var = 'smcl'
    var_name = ''
/
